
Conversion to B-spline reprisantation:


Input file: 3d7_AV.w                                                                        
Output file: 3d7_AV.bsw                                                                      

Eps_end tolerence:    0.100D-06
Lagrange interpolation index:    20

Border radius:       40.000

  1s   mdif =  0.000000   border =  0.000000
  2s   mdif =  0.000000   border =  0.000000
  2p   mdif =  0.000000   border =  0.000000
  3s   mdif =  0.000000   border =  0.000000
  3p   mdif =  0.000000   border =  0.000000
  3d   mdif =  0.000000   border =  0.000000

Conversion to B-spline reprisantation:


Input file: 3s2_hf.w                                                                        
Output file: 3s2_hf.bsw                                                                      

Eps_end tolerence:    0.100D-06
Lagrange interpolation index:    20

Border radius:       40.000


Conversion to B-spline reprisantation:


Input file: 3s2_hf.w                                                                        
Output file: 3s2_hf.bsw                                                                      

Eps_end tolerence:    0.100D-06
Lagrange interpolation index:    20

Border radius:       40.000

  1s   mdif =  0.000000   border =  0.000000
  2s   mdif =  0.000000   border =  0.000000
  2p   mdif =  0.000000   border =  0.000000
  3s   mdif =  0.000000   border =  0.000000
