
Conversion to B-spline reprisantation:


Input file: 2p2_3P.w                                                                        
Output file: 2p2_3P.bsw                                                                      

Eps_end tolerence:    0.100D-06
Lagrange interpolation index:    20

Border radius:       50.212

  1s   mdif =  0.000000   border =  0.000000
  2s   mdif =  0.000000   border =  0.000000
  2p   mdif =  0.000000   border =  0.000000
  3p   mdif =  0.000000   border = -0.000001
  3d   mdif =  0.000027   border =  0.000049
  3s   mdif =  0.000000   border =  0.000000
  9s   mdif =  0.000007   border =  0.000000
  9p   mdif =  0.000003   border =  0.000000
  9d   mdif =  0.000004   border = -0.000007
  9f   mdif =  0.000006   border =  0.000000

Conversion to B-spline reprisantation:


Input file: 2p3s_3Po.w                                                                      
Output file: 2p3s_3Po.bsw                                                                    

Eps_end tolerence:    0.100D-06
Lagrange interpolation index:    20

Border radius:       50.212

  1s   mdif =  0.000000   border =  0.000000
  2s   mdif =  0.000000   border =  0.000000
  2p   mdif =  0.000000   border =  0.000000
  3d   mdif =  0.000028   border =  0.000052
  3p   mdif =  0.000000   border =  0.000000
  3s   mdif =  0.000000   border =  0.000000
  4s   mdif =  0.000068   border = -0.000124
  9s   mdif =  0.000019   border =  0.000034
  9p   mdif =  0.000002   border =  0.000000
  9d   mdif =  0.000005   border = -0.000009
  9f   mdif =  0.000003   border =  0.000000

Conversion to B-spline reprisantation:


Input file: 2p3_3Do.w                                                                       
Output file: 2p3_3Do.bsw                                                                     

Eps_end tolerence:    0.100D-06
Lagrange interpolation index:    20

Border radius:       50.212

  1s   mdif =  0.000000   border =  0.000000
  2s   mdif =  0.000000   border =  0.000000
  2p   mdif =  0.000000   border =  0.000000
  3d   mdif =  0.000028   border =  0.000052
  3p   mdif =  0.000000   border =  0.000000
  3s   mdif =  0.000000   border =  0.000000
  4s   mdif =  0.000068   border = -0.000124
  9s   mdif =  0.000019   border =  0.000034
  9p   mdif =  0.000002   border =  0.000000
  9d   mdif =  0.000005   border = -0.000009
  9f   mdif =  0.000003   border =  0.000000

Conversion to B-spline reprisantation:


Input file: 2p3_3Po.w                                                                       
Output file: 2p3_3Po.bsw                                                                     

Eps_end tolerence:    0.100D-06
Lagrange interpolation index:    20

Border radius:       50.212

  1s   mdif =  0.000000   border =  0.000000
  2s   mdif =  0.000000   border =  0.000000
  2p   mdif =  0.000000   border =  0.000000
  3d   mdif =  0.000028   border =  0.000052
  3p   mdif =  0.000000   border =  0.000000
  3s   mdif =  0.000000   border =  0.000000
  4s   mdif =  0.000068   border = -0.000124
  9s   mdif =  0.000019   border =  0.000034
  9p   mdif =  0.000002   border =  0.000000
  9d   mdif =  0.000005   border = -0.000009
  9f   mdif =  0.000003   border =  0.000000

Conversion to B-spline reprisantation:


Input file: 2p3_3So.w                                                                       
Output file: 2p3_3So.bsw                                                                     

Eps_end tolerence:    0.100D-06
Lagrange interpolation index:    20

Border radius:       50.212

  1s   mdif =  0.000000   border =  0.000000
  2s   mdif =  0.000000   border =  0.000000
  2p   mdif =  0.000000   border =  0.000000
  3d   mdif =  0.000028   border =  0.000052
  3p   mdif =  0.000000   border =  0.000000
  3s   mdif =  0.000000   border =  0.000000
  4s   mdif =  0.000068   border = -0.000124
  9s   mdif =  0.000019   border =  0.000034
  9p   mdif =  0.000002   border =  0.000000
  9d   mdif =  0.000005   border = -0.000009
  9f   mdif =  0.000003   border =  0.000000

Conversion to B-spline reprisantation:


Input file: 2p3_5So.w                                                                       
Output file: 2p3_5So.bsw                                                                     

Eps_end tolerence:    0.100D-06
Lagrange interpolation index:    20

Border radius:       50.212

  1s   mdif =  0.000000   border =  0.000000
  2s   mdif =  0.000000   border =  0.000000
  2p   mdif =  0.000000   border =  0.000000
  3d   mdif =  0.000028   border =  0.000052
  3p   mdif =  0.000000   border =  0.000000
  3s   mdif =  0.000000   border =  0.000000
  4s   mdif =  0.000068   border = -0.000124
  9s   mdif =  0.000019   border =  0.000034
  9p   mdif =  0.000002   border =  0.000000
  9d   mdif =  0.000005   border = -0.000009
  9f   mdif =  0.000003   border =  0.000000

Conversion to B-spline reprisantation:


Input file: 2p4_3P.w                                                                        
Output file: 2p4_3P.bsw                                                                      

Eps_end tolerence:    0.100D-06
Lagrange interpolation index:    20

Border radius:       50.212

  1s   mdif =  0.000000   border =  0.000000
  2s   mdif =  0.000000   border =  0.000000
  2p   mdif =  0.000000   border =  0.000000
  3p   mdif =  0.000000   border = -0.000001
  3d   mdif =  0.000027   border =  0.000049
  3s   mdif =  0.000000   border =  0.000000
  9s   mdif =  0.000007   border =  0.000000
  9p   mdif =  0.000003   border =  0.000000
  9d   mdif =  0.000004   border = -0.000007
  9f   mdif =  0.000006   border =  0.000000

Conversion to B-spline reprisantation:


Input file: 2p2_3P.w                                                                        
Output file: 2p2_3P.bsw                                                                      

Eps_end tolerence:    0.100D-06
Lagrange interpolation index:    20

Border radius:       50.212

  1s   mdif =  0.000000   border =  0.000000
  2s   mdif =  0.000000   border =  0.000000
  2p   mdif =  0.000000   border =  0.000000
  3p   mdif =  0.000000   border = -0.000001
  3d   mdif =  0.000027   border =  0.000049
  3s   mdif =  0.000000   border =  0.000000
  9s   mdif =  0.000007   border =  0.000000
  9p   mdif =  0.000003   border =  0.000000
  9d   mdif =  0.000004   border = -0.000007
  9f   mdif =  0.000006   border =  0.000000

Conversion to B-spline reprisantation:


Input file: 2p3s_3Po.w                                                                      
Output file: 2p3s_3Po.bsw                                                                    

Eps_end tolerence:    0.100D-06
Lagrange interpolation index:    20

Border radius:       50.212

  1s   mdif =  0.000000   border =  0.000000
  2s   mdif =  0.000000   border =  0.000000
  2p   mdif =  0.000000   border =  0.000000
  3d   mdif =  0.000028   border =  0.000052
  3p   mdif =  0.000000   border =  0.000000
  3s   mdif =  0.000000   border =  0.000000
  4s   mdif =  0.000068   border = -0.000124
  9s   mdif =  0.000019   border =  0.000034
  9p   mdif =  0.000002   border =  0.000000
  9d   mdif =  0.000005   border = -0.000009
  9f   mdif =  0.000003   border =  0.000000

Conversion to B-spline reprisantation:


Input file: 2p3_3Do.w                                                                       
Output file: 2p3_3Do.bsw                                                                     

Eps_end tolerence:    0.100D-06
Lagrange interpolation index:    20

Border radius:       50.212

  1s   mdif =  0.000000   border =  0.000000
  2s   mdif =  0.000000   border =  0.000000
  2p   mdif =  0.000000   border =  0.000000
  3d   mdif =  0.000028   border =  0.000052
  3p   mdif =  0.000000   border =  0.000000
  3s   mdif =  0.000000   border =  0.000000
  4s   mdif =  0.000068   border = -0.000124
  9s   mdif =  0.000019   border =  0.000034
  9p   mdif =  0.000002   border =  0.000000
  9d   mdif =  0.000005   border = -0.000009
  9f   mdif =  0.000003   border =  0.000000

Conversion to B-spline reprisantation:


Input file: 2p3_3Po.w                                                                       
Output file: 2p3_3Po.bsw                                                                     

Eps_end tolerence:    0.100D-06
Lagrange interpolation index:    20

Border radius:       50.212

  1s   mdif =  0.000000   border =  0.000000
  2s   mdif =  0.000000   border =  0.000000
  2p   mdif =  0.000000   border =  0.000000
  3d   mdif =  0.000028   border =  0.000052
  3p   mdif =  0.000000   border =  0.000000
  3s   mdif =  0.000000   border =  0.000000
  4s   mdif =  0.000068   border = -0.000124
  9s   mdif =  0.000019   border =  0.000034
  9p   mdif =  0.000002   border =  0.000000
  9d   mdif =  0.000005   border = -0.000009
  9f   mdif =  0.000003   border =  0.000000

Conversion to B-spline reprisantation:


Input file: 2p3_3So.w                                                                       
Output file: 2p3_3So.bsw                                                                     

Eps_end tolerence:    0.100D-06
Lagrange interpolation index:    20

Border radius:       50.212

  1s   mdif =  0.000000   border =  0.000000
  2s   mdif =  0.000000   border =  0.000000
  2p   mdif =  0.000000   border =  0.000000
  3d   mdif =  0.000028   border =  0.000052
  3p   mdif =  0.000000   border =  0.000000
  3s   mdif =  0.000000   border =  0.000000
  4s   mdif =  0.000068   border = -0.000124
  9s   mdif =  0.000019   border =  0.000034
  9p   mdif =  0.000002   border =  0.000000
  9d   mdif =  0.000005   border = -0.000009
  9f   mdif =  0.000003   border =  0.000000

Conversion to B-spline reprisantation:


Input file: 2p3_5So.w                                                                       
Output file: 2p3_5So.bsw                                                                     

Eps_end tolerence:    0.100D-06
Lagrange interpolation index:    20

Border radius:       50.212

  1s   mdif =  0.000000   border =  0.000000
  2s   mdif =  0.000000   border =  0.000000
  2p   mdif =  0.000000   border =  0.000000
  3d   mdif =  0.000028   border =  0.000052
  3p   mdif =  0.000000   border =  0.000000
  3s   mdif =  0.000000   border =  0.000000
  4s   mdif =  0.000068   border = -0.000124
  9s   mdif =  0.000019   border =  0.000034
  9p   mdif =  0.000002   border =  0.000000
  9d   mdif =  0.000005   border = -0.000009
  9f   mdif =  0.000003   border =  0.000000

Conversion to B-spline reprisantation:


Input file: 2p4_3P.w                                                                        
Output file: 2p4_3P.bsw                                                                      

Eps_end tolerence:    0.100D-06
Lagrange interpolation index:    20

Border radius:       50.212

  1s   mdif =  0.000000   border =  0.000000
  2s   mdif =  0.000000   border =  0.000000
  2p   mdif =  0.000000   border =  0.000000
  3p   mdif =  0.000000   border = -0.000001
  3d   mdif =  0.000027   border =  0.000049
  3s   mdif =  0.000000   border =  0.000000
  9s   mdif =  0.000007   border =  0.000000
  9p   mdif =  0.000003   border =  0.000000
  9d   mdif =  0.000004   border = -0.000007
  9f   mdif =  0.000006   border =  0.000000

Conversion to B-spline reprisantation:


Input file: 2p2_3P.w                                                                        
Output file: 2p2_3P.bsw                                                                      

Eps_end tolerence:    0.100D-06
Lagrange interpolation index:    20

Border radius:       50.212

  1s   mdif =  0.000000   border =  0.000000
  2s   mdif =  0.000000   border =  0.000000
  2p   mdif =  0.000000   border =  0.000000
  3p   mdif =  0.000000   border = -0.000001
  3d   mdif =  0.000027   border =  0.000049
  3s   mdif =  0.000000   border =  0.000000
  9s   mdif =  0.000007   border =  0.000000
  9p   mdif =  0.000003   border =  0.000000
  9d   mdif =  0.000004   border = -0.000007
  9f   mdif =  0.000006   border =  0.000000

Conversion to B-spline reprisantation:


Input file: 2p3s_3Po.w                                                                      
Output file: 2p3s_3Po.bsw                                                                    

Eps_end tolerence:    0.100D-06
Lagrange interpolation index:    20

Border radius:       50.212

  1s   mdif =  0.000000   border =  0.000000
  2s   mdif =  0.000000   border =  0.000000
  2p   mdif =  0.000000   border =  0.000000
  3d   mdif =  0.000028   border =  0.000052
  3p   mdif =  0.000000   border =  0.000000
  3s   mdif =  0.000000   border =  0.000000
  4s   mdif =  0.000068   border = -0.000124
  9s   mdif =  0.000019   border =  0.000034
  9p   mdif =  0.000002   border =  0.000000
  9d   mdif =  0.000005   border = -0.000009
  9f   mdif =  0.000003   border =  0.000000

Conversion to B-spline reprisantation:


Input file: 2p3_3Do.w                                                                       
Output file: 2p3_3Do.bsw                                                                     

Eps_end tolerence:    0.100D-06
Lagrange interpolation index:    20

Border radius:       50.212

  1s   mdif =  0.000000   border =  0.000000
  2s   mdif =  0.000000   border =  0.000000
  2p   mdif =  0.000000   border =  0.000000
  3d   mdif =  0.000028   border =  0.000052
  3p   mdif =  0.000000   border =  0.000000
  3s   mdif =  0.000000   border =  0.000000
  4s   mdif =  0.000068   border = -0.000124
  9s   mdif =  0.000019   border =  0.000034
  9p   mdif =  0.000002   border =  0.000000
  9d   mdif =  0.000005   border = -0.000009
  9f   mdif =  0.000003   border =  0.000000

Conversion to B-spline reprisantation:


Input file: 2p3_3Po.w                                                                       
Output file: 2p3_3Po.bsw                                                                     

Eps_end tolerence:    0.100D-06
Lagrange interpolation index:    20

Border radius:       50.212

  1s   mdif =  0.000000   border =  0.000000
  2s   mdif =  0.000000   border =  0.000000
  2p   mdif =  0.000000   border =  0.000000
  3d   mdif =  0.000028   border =  0.000052
  3p   mdif =  0.000000   border =  0.000000
  3s   mdif =  0.000000   border =  0.000000
  4s   mdif =  0.000068   border = -0.000124
  9s   mdif =  0.000019   border =  0.000034
  9p   mdif =  0.000002   border =  0.000000
  9d   mdif =  0.000005   border = -0.000009
  9f   mdif =  0.000003   border =  0.000000

Conversion to B-spline reprisantation:


Input file: 2p3_3So.w                                                                       
Output file: 2p3_3So.bsw                                                                     

Eps_end tolerence:    0.100D-06
Lagrange interpolation index:    20

Border radius:       50.212

  1s   mdif =  0.000000   border =  0.000000
  2s   mdif =  0.000000   border =  0.000000
  2p   mdif =  0.000000   border =  0.000000
  3d   mdif =  0.000028   border =  0.000052
  3p   mdif =  0.000000   border =  0.000000
  3s   mdif =  0.000000   border =  0.000000
  4s   mdif =  0.000068   border = -0.000124
  9s   mdif =  0.000019   border =  0.000034
  9p   mdif =  0.000002   border =  0.000000
  9d   mdif =  0.000005   border = -0.000009
  9f   mdif =  0.000003   border =  0.000000

Conversion to B-spline reprisantation:


Input file: 2p3_5So.w                                                                       
Output file: 2p3_5So.bsw                                                                     

Eps_end tolerence:    0.100D-06
Lagrange interpolation index:    20

Border radius:       50.212

  1s   mdif =  0.000000   border =  0.000000
  2s   mdif =  0.000000   border =  0.000000
  2p   mdif =  0.000000   border =  0.000000
  3d   mdif =  0.000028   border =  0.000052
  3p   mdif =  0.000000   border =  0.000000
  3s   mdif =  0.000000   border =  0.000000
  4s   mdif =  0.000068   border = -0.000124
  9s   mdif =  0.000019   border =  0.000034
  9p   mdif =  0.000002   border =  0.000000
  9d   mdif =  0.000005   border = -0.000009
  9f   mdif =  0.000003   border =  0.000000

Conversion to B-spline reprisantation:


Input file: 2p4_3P.w                                                                        
Output file: 2p4_3P.bsw                                                                      

Eps_end tolerence:    0.100D-06
Lagrange interpolation index:    20

Border radius:       50.212

  1s   mdif =  0.000000   border =  0.000000
  2s   mdif =  0.000000   border =  0.000000
  2p   mdif =  0.000000   border =  0.000000
  3p   mdif =  0.000000   border = -0.000001
  3d   mdif =  0.000027   border =  0.000049
  3s   mdif =  0.000000   border =  0.000000
  9s   mdif =  0.000007   border =  0.000000
  9p   mdif =  0.000003   border =  0.000000
  9d   mdif =  0.000004   border = -0.000007
  9f   mdif =  0.000006   border =  0.000000
